*SPEF "IEEE 1481.1999"
*DESIGN "adder"
*DATE "18:43:25 Thursday June 04, 2020"
*VENDOR "unknown"
*PROGRAM "qrouter"
*VERSION "unknown"
*DESIGN_FLOW "qflow"
*DIVIDER /
*DELIMITER :
*BUS_DELIMITER <>
*T_UNIT 1 PS
*C_UNIT 1 FF
*R_UNIT 1 OHM
*L_UNIT 1 HENRY

*NAME_MAP
*1 \P1_Gij\
*2 _64_
*3 _73_
*4 _66_
*5 _86_
*6 \P3_1_Gij\
*7 _74_
*8 _83_
*9 _76_
*10 _88_
*11 y[0]
*12 _36_
*13 _33_
*14 x[0]
*15 _34_
*16 _36_
*17 \G1_g\
*18 _35_
*19 _63_
*20 _85_
*21 y[1]
*22 _41_
*23 _37_
*24 _2_
*25 _37_
*26 _39_
*27 _40_
*28 x[1]
*29 _41_
*30 _38_
*31 _3_
*32 _38_
*33 _39_
*34 _40_
*35 y[2]
*36 _42_
*37 _46_
*38 _4_
*39 _42_
*40 _45_
*41 _44_
*42 x[2]
*43 _46_
*44 _43_
*45 _5_
*46 _43_
*47 _45_
*48 _44_
*49 \G3_g\
*50 _44_
*51 _65_
*52 _69_
*53 \G3_p\
*54 _45_
*55 _71_
*56 _66_
*57 y[3]
*58 _47_
*59 _51_
*60 _6_
*61 _47_
*62 _50_
*63 _49_
*64 x[3]
*65 _48_
*66 _51_
*67 _7_
*68 _48_
*69 _49_
*70 _50_
*71 \G4_p\
*72 _50_
*73 _69_
*74 _71_
*75 y[4]
*76 _52_
*77 _56_
*78 _8_
*79 _52_
*80 _54_
*81 _55_
*82 x[4]
*83 _53_
*84 _56_
*85 _9_
*86 _53_
*87 _55_
*88 _54_
*89 \G5_g\
*90 _54_
*91 _75_
*92 _79_
*93 \G5_p\
*94 _55_
*95 _81_
*96 _76_
*97 y[5]
*98 _61_
*99 _57_
*100 _10_
*101 _57_
*102 _59_
*103 _60_
*104 x[5]
*105 _61_
*106 _58_
*107 _11_
*108 _58_
*109 _59_
*110 _60_
*111 \G6_p\
*112 _60_
*113 _81_
*114 _79_
*115 \G1_h\
*116 _36_
*117 _26_
*118 s[0]
*119 _26_
*120 \S1_s\
*121 _85_
*122 _27_
*123 s[1]
*124 _27_
*125 \S2_s\
*126 _86_
*127 _28_
*128 s[2]
*129 _28_
*130 \S3_s\
*131 _87_
*132 _29_
*133 s[3]
*134 _29_
*135 \S4_s\
*136 _88_
*137 _30_
*138 s[4]
*139 _30_
*140 \S5_s\
*141 _89_
*142 _31_
*143 s[5]
*144 _31_
*145 \P5_1_Gij\
*146 _84_
*147 _32_
*148 s[6]
*149 _32_
*150 _0_
*151 _33_
*152 _35_
*153 _1_
*154 _34_
*155 _35_
*156 \G2_g\
*157 _39_
*158 _62_
*159 \G2_p\
*160 _40_
*161 _63_
*162 \G2_h\
*163 _41_
*164 _85_
*165 \G3_h\
*166 _46_
*167 _86_
*168 \G4_g\
*169 _49_
*170 _68_
*171 \G4_h\
*172 _51_
*173 _87_
*174 \G5_h\
*175 _56_
*176 _88_
*177 \G6_g\
*178 _59_
*179 _78_
*180 \G6_h\
*181 _61_
*182 _89_
*183 _12_
*184 _62_
*185 _64_
*186 _13_
*187 _63_
*188 _64_
*189 _14_
*190 _65_
*191 _67_
*192 _15_
*193 _66_
*194 _67_
*195 \P2_Gij\
*196 _67_
*197 _87_
*198 _16_
*199 _68_
*200 _70_
*201 _17_
*202 _69_
*203 _70_
*204 \P3_Gij\
*205 _70_
*206 _72_
*207 \P3_Pij\
*208 _71_
*209 _73_
*210 _18_
*211 _72_
*212 _74_
*213 _19_
*214 _73_
*215 _74_
*216 _20_
*217 _75_
*218 _77_
*219 _21_
*220 _76_
*221 _77_
*222 \P4_Gij\
*223 _77_
*224 _89_
*225 _22_
*226 _78_
*227 _80_
*228 _23_
*229 _79_
*230 _80_
*231 \P5_Gij\
*232 _80_
*233 _82_
*234 \P5_Pij\
*235 _81_
*236 _83_
*237 _24_
*238 _82_
*239 _84_
*240 _25_
*241 _83_
*242 _84_

*PORTS
*11 I
*14 I
*21 I
*28 I
*35 I
*42 I
*57 I
*64 I
*75 I
*82 I
*97 I
*104 I
*118 O
*123 O
*128 O
*133 O
*138 O
*143 O
*148 O

*D_NET *1 0.00225392
*CONN
*I *2:Y O *D _64
*I *3:A I *L 0
*I *4:A I *L 0
*I *5:A I *L 0
*CAP
1 1_1 0.00021194
2 1_2 0.00042936
3 1_3 0.00010512
4 1_4 0.0002904
5 1_5 0.0012171
*RES
1 *2:Y 1_1 0.693333
2 1_1 1_2 1.92
3 1_2 1_3 0.426667
4 1_3 *3:A 0
5 1_2 1_4 1.28
6 1_4 *4:A 0
7 1_1 1_5 5.06667
8 1_5 *5:A 0
*END
*D_NET *6 0.00381296
*CONN
*I *7:Y O *D _74
*I *8:A I *L 0
*I *9:A I *L 0
*I *10:A I *L 0
*CAP
1 6_1 0.00113976
2 6_2 6.57e-05
3 6_3 0.00096516
4 6_4 0.0001314
5 6_5 0.00151094
*RES
1 *7:Y 6_1 5.12
2 6_1 6_2 0.266667
3 6_2 *8:A 0
4 6_2 6_3 4.37333
5 6_3 6_4 0.533333
6 6_4 *9:A 0
7 6_3 6_5 7.50667
8 6_5 *10:A 0
*END
*D_NET *11 0.00134916
*CONN
*P *11 O
*I *12:A I *L 0
*I *13:A I *L 0
*CAP
1 11_1 0.00086166
2 11_2 6.57e-05
3 11_3 0.0004218
*RES
1 *11 11_1 3.57333
2 11_1 11_2 0.266667
3 11_2 *12:A 0
4 11_2 11_3 1.81333
5 11_3 *13:A 0
*END
*D_NET *14 0.002384
*CONN
*P *14 O
*I *15:A I *L 0
*I *16:B I *L 0
*CAP
1 14_1 0.00027792
2 14_2 0.00117144
3 14_3 0.00093464
*RES
1 *14 14_1 1.28
2 14_1 14_2 4.90667
3 14_2 *15:A 0
4 14_1 14_3 3.62667
5 14_3 *16:B 0
*END
*D_NET *17 0.00107766
*CONN
*I *18:Y O *D _35
*I *19:A I *L 0
*I *20:A I *L 0
*CAP
1 17_1 0.0003942
2 17_2 6.57e-05
3 17_3 0.00061776
*RES
1 *18:Y 17_1 1.6
2 17_1 17_2 0.266667
3 17_2 *19:A 0
4 17_2 17_3 2.77333
5 17_3 *20:A 0
*END
*D_NET *21 0.0021366
*CONN
*P *21 O
*I *22:A I *L 0
*I *23:A I *L 0
*CAP
1 21_1 0.00086166
2 21_2 6.57e-05
3 21_3 0.00120924
*RES
1 *21 21_1 3.57333
2 21_1 21_2 0.266667
3 21_2 *22:A 0
4 21_2 21_3 5.44
5 21_3 *23:A 0
*END
*D_NET *24 0.00105184
*CONN
*I *25:Y O *D _37
*I *26:A I *L 0
*I *27:A I *L 0
*CAP
1 24_1 0.00031076
2 24_2 0.0001828
3 24_3 0.00055828
*RES
1 *25:Y 24_1 0.906667
2 24_1 24_2 0.533333
3 24_2 *26:A 0
4 24_1 24_3 2.13333
5 24_3 *27:A 0
*END
*D_NET *28 0.00161498
*CONN
*P *28 O
*I *29:B I *L 0
*I *30:A I *L 0
*CAP
1 28_1 0.00099346
2 28_2 0.00062152
*RES
1 *28 28_1 3.57333
2 28_1 *29:B 0
3 28_1 28_2 1.81333
4 28_2 *30:A 0
*END
*D_NET *31 0.00085076
*CONN
*I *32:Y O *D _38
*I *33:B I *L 0
*I *34:B I *L 0
*CAP
1 31_1 0.00070452
2 31_2 0.00014624
*RES
1 *32:Y 31_1 2.56
2 31_1 *33:B 0
3 31_1 31_2 0.426667
4 31_2 *34:B 0
*END
*D_NET *35 0.0013674
*CONN
*P *35 O
*I *36:A I *L 0
*I *37:A I *L 0
*CAP
1 35_1 0.0004599
2 35_2 6.57e-05
3 35_3 0.0008418
*RES
1 *35 35_1 1.86667
2 35_1 35_2 0.266667
3 35_2 *36:A 0
4 35_2 35_3 3.73333
5 35_3 *37:A 0
*END
*D_NET *38 0.00052172
*CONN
*I *39:Y O *D _42
*I *40:A I *L 0
*I *41:A I *L 0
*CAP
1 38_1 0.00014624
2 38_2 0.00037548
*RES
1 *39:Y 38_1 0.426667
2 38_1 *40:A 0
3 38_1 38_2 1.6
4 38_2 *41:A 0
*END
*D_NET *42 0.00085464
*CONN
*P *42 O
*I *43:B I *L 0
*I *44:A I *L 0
*CAP
1 42_1 0.0005256
2 42_2 0.00032904
*RES
1 *42 42_1 2.13333
2 42_1 *43:B 0
3 42_1 42_2 0.96
4 42_2 *44:A 0
*END
*D_NET *45 0.00111384
*CONN
*I *46:Y O *D _43
*I *47:B I *L 0
*I *48:B I *L 0
*CAP
1 45_1 0.00064572
2 45_2 0.00010512
3 45_3 0.000363
*RES
1 *46:Y 45_1 2.34667
2 45_1 45_2 0.426667
3 45_2 *47:B 0
4 45_1 45_3 1.6
5 45_3 *48:B 0
*END
*D_NET *49 0.00086894
*CONN
*I *50:Y O *D _44
*I *51:A I *L 0
*I *52:A I *L 0
*CAP
1 49_1 0.0005913
2 49_2 0.0001314
3 49_3 0.00014624
*RES
1 *50:Y 49_1 2.4
2 49_1 49_2 0.533333
3 49_2 *51:A 0
4 49_1 49_3 0.426667
5 49_3 *52:A 0
*END
*D_NET *53 0.00128384
*CONN
*I *54:Y O *D _45
*I *55:B I *L 0
*I *56:B I *L 0
*CAP
1 53_1 0.00090836
2 53_2 0.0001314
3 53_3 0.00024408
*RES
1 *54:Y 53_1 3.52
2 53_1 53_2 0.533333
3 53_2 *55:B 0
4 53_1 53_3 1.06667
5 53_3 *56:B 0
*END
*D_NET *57 0.00127476
*CONN
*P *57 O
*I *58:A I *L 0
*I *59:A I *L 0
*CAP
1 57_1 0.0004599
2 57_2 6.57e-05
3 57_3 0.00074916
*RES
1 *57 57_1 1.86667
2 57_1 57_2 0.266667
3 57_2 *58:A 0
4 57_2 57_3 3.30667
5 57_3 *59:A 0
*END
*D_NET *60 0.00103604
*CONN
*I *61:Y O *D _47
*I *62:A I *L 0
*I *63:A I *L 0
*CAP
1 60_1 0.0008898
2 60_2 0.00014624
*RES
1 *61:Y 60_1 3.41333
2 60_1 *62:A 0
3 60_1 60_2 0.426667
4 60_2 *63:A 0
*END
*D_NET *64 0.00098124
*CONN
*P *64 O
*I *65:A I *L 0
*I *66:B I *L 0
*CAP
1 64_1 0.0004599
2 64_2 6.57e-05
3 64_3 0.00045564
*RES
1 *64 64_1 1.86667
2 64_1 64_2 0.266667
3 64_2 *65:A 0
4 64_2 64_3 2.02667
5 64_3 *66:B 0
*END
*D_NET *67 0.0003656
*CONN
*I *68:Y O *D _48
*I *69:B I *L 0
*I *70:B I *L 0
*CAP
1 67_1 0.00021936
2 67_2 0.00014624
*RES
1 *68:Y 67_1 0.64
2 67_1 *69:B 0
3 67_1 67_2 0.426667
4 67_2 *70:B 0
*END
*D_NET *71 0.00160742
*CONN
*I *72:Y O *D _50
*I *73:B I *L 0
*I *74:A I *L 0
*CAP
1 71_1 0.00086894
2 71_2 6.57e-05
3 71_3 0.00067278
*RES
1 *72:Y 71_1 3.36
2 71_1 71_2 0.266667
3 71_2 *73:B 0
4 71_2 71_3 2.93333
5 71_3 *74:A 0
*END
*D_NET *75 0.00165312
*CONN
*P *75 O
*I *76:A I *L 0
*I *77:A I *L 0
*CAP
1 75_1 0.00054072
2 75_2 0.0003207
3 75_3 0.0007917
*RES
1 *75 75_1 2.34667
2 75_1 75_2 1.33333
3 75_2 *76:A 0
4 75_1 75_3 3.46667
5 75_3 *77:A 0
*END
*D_NET *78 0.00156918
*CONN
*I *79:Y O *D _52
*I *80:A I *L 0
*I *81:A I *L 0
*CAP
1 78_1 0.00105474
2 78_2 0.0001314
3 78_3 0.00038304
*RES
1 *79:Y 78_1 4.10667
2 78_1 78_2 0.533333
3 78_2 *80:A 0
4 78_1 78_3 1.70667
5 78_3 *81:A 0
*END
*D_NET *82 0.00078894
*CONN
*P *82 O
*I *83:A I *L 0
*I *84:B I *L 0
*CAP
1 82_1 0.0004599
2 82_2 0.00032904
*RES
1 *82 82_1 1.86667
2 82_1 *83:A 0
3 82_1 82_2 0.96
4 82_2 *84:B 0
*END
*D_NET *85 0.00131768
*CONN
*I *86:Y O *D _53
*I *87:B I *L 0
*I *88:B I *L 0
*CAP
1 85_1 0.00073754
2 85_2 6.57e-05
3 85_3 0.00051444
*RES
1 *86:Y 85_1 2.82667
2 85_1 85_2 0.266667
3 85_2 *87:B 0
4 85_2 85_3 2.24
5 85_3 *88:B 0
*END
*D_NET *89 0.00098412
*CONN
*I *90:Y O *D _54
*I *91:A I *L 0
*I *92:A I *L 0
*CAP
1 89_1 0.00076476
2 89_2 0.00021936
*RES
1 *90:Y 89_1 3.30667
2 89_1 *91:A 0
3 89_1 89_2 0.64
4 89_2 *92:A 0
*END
*D_NET *93 0.00114516
*CONN
*I *94:Y O *D _55
*I *95:B I *L 0
*I *96:B I *L 0
*CAP
1 93_1 0.0005256
2 93_2 0.00010512
3 93_3 0.00051444
*RES
1 *94:Y 93_1 2.13333
2 93_1 93_2 0.426667
3 93_2 *95:B 0
4 93_1 93_3 2.24
5 93_3 *96:B 0
*END
*D_NET *97 0.0011478
*CONN
*P *97 O
*I *98:A I *L 0
*I *99:A I *L 0
*CAP
1 97_1 0.00070662
2 97_2 6.57e-05
3 97_3 0.00037548
*RES
1 *97 97_1 3.14667
2 97_1 97_2 0.266667
3 97_2 *98:A 0
4 97_2 97_3 1.6
5 97_3 *99:A 0
*END
*D_NET *100 0.00098724
*CONN
*I *101:Y O *D _57
*I *102:A I *L 0
*I *103:A I *L 0
*CAP
1 100_1 0.0006582
2 100_2 0.00032904
*RES
1 *101:Y 100_1 2.34667
2 100_1 *102:A 0
3 100_1 100_2 0.96
4 100_2 *103:A 0
*END
*D_NET *104 0.0009507
*CONN
*P *104 O
*I *105:B I *L 0
*I *106:A I *L 0
*CAP
1 104_1 0.0002316
2 104_2 6.57e-05
3 104_3 0.0006534
*RES
1 *104 104_1 1.06667
2 104_1 104_2 0.266667
3 104_2 *105:B 0
4 104_2 104_3 2.88
5 104_3 *106:A 0
*END
*D_NET *107 0.00111384
*CONN
*I *108:Y O *D _58
*I *109:B I *L 0
*I *110:B I *L 0
*CAP
1 107_1 0.00055308
2 107_2 0.00010512
3 107_3 0.00045564
*RES
1 *108:Y 107_1 1.92
2 107_1 107_2 0.426667
3 107_2 *109:B 0
4 107_1 107_3 2.02667
5 107_3 *110:B 0
*END
*D_NET *111 0.00170762
*CONN
*I *112:Y O *D _60
*I *113:A I *L 0
*I *114:B I *L 0
*CAP
1 111_1 6.57e-05
2 111_2 0.00064556
3 111_3 0.00099636
*RES
1 *112:Y 111_1 0.266667
2 111_1 111_2 2.45333
3 111_2 *113:A 0
4 111_1 111_3 4.37333
5 111_3 *114:B 0
*END
*D_NET *115 0.00142892
*CONN
*I *116:Y O *D _36
*I *117:A I *L 0
*CAP
1 115_1 0.00142892
*RES
1 *116:Y 115_1 6.32667
2 115_1 *117:A 0
*END
*D_NET *118 0.00053604
*CONN
*I *119:Y O *D _26
*P *118 I
*CAP
1 118_1 0.00053604
*RES
1 *119:Y 118_1 2.02667
2 118_1 *118 0
*END
*D_NET *120 0.0004218
*CONN
*I *121:Y O *D _85
*I *122:A I *L 0
*CAP
1 120_1 0.0004218
*RES
1 *121:Y 120_1 1.81333
2 120_1 *122:A 0
*END
*D_NET *123 0.00046292
*CONN
*I *124:Y O *D _27
*P *123 I
*CAP
1 123_1 0.00046292
*RES
1 *124:Y 123_1 1.81333
2 123_1 *123 0
*END
*D_NET *125 0.0008898
*CONN
*I *126:Y O *D _86
*I *127:A I *L 0
*CAP
1 125_1 0.0008898
*RES
1 *126:Y 125_1 3.41333
2 125_1 *127:A 0
*END
*D_NET *128 0.00049932
*CONN
*I *129:Y O *D _28
*P *128 I
*CAP
1 128_1 0.00049932
*RES
1 *129:Y 128_1 2.02667
2 128_1 *128 0
*END
*D_NET *130 0.00077696
*CONN
*I *131:Y O *D _87
*I *132:A I *L 0
*CAP
1 130_1 0.00077696
*RES
1 *131:Y 130_1 2.98667
2 130_1 *132:A 0
*END
*D_NET *133 0.00043362
*CONN
*I *134:Y O *D _29
*P *133 I
*CAP
1 133_1 0.00043362
*RES
1 *134:Y 133_1 1.76
2 133_1 *133 0
*END
*D_NET *135 0.00063024
*CONN
*I *136:Y O *D _88
*I *137:A I *L 0
*CAP
1 135_1 0.00063024
*RES
1 *136:Y 135_1 2.77333
2 135_1 *137:A 0
*END
*D_NET *138 0.000363
*CONN
*I *139:Y O *D _30
*P *138 I
*CAP
1 138_1 0.000363
*RES
1 *139:Y 138_1 1.6
2 138_1 *138 0
*END
*D_NET *140 0.0003656
*CONN
*I *141:Y O *D _89
*I *142:A I *L 0
*CAP
1 140_1 0.0003656
*RES
1 *141:Y 140_1 1.06667
2 140_1 *142:A 0
*END
*D_NET *143 0.000363
*CONN
*I *144:Y O *D _31
*P *143 I
*CAP
1 143_1 0.000363
*RES
1 *144:Y 143_1 1.6
2 143_1 *143 0
*END
*D_NET *145 0.00138036
*CONN
*I *146:Y O *D _84
*I *147:A I *L 0
*CAP
1 145_1 0.00138036
*RES
1 *146:Y 145_1 5.65333
2 145_1 *147:A 0
*END
*D_NET *148 0.00059886
*CONN
*I *149:Y O *D _32
*P *148 I
*CAP
1 148_1 0.00059886
*RES
1 *149:Y 148_1 2.50667
2 148_1 *148 0
*END
*D_NET *150 0.00040216
*CONN
*I *151:Y O *D _33
*I *152:A I *L 0
*CAP
1 150_1 0.00040216
*RES
1 *151:Y 150_1 1.17333
2 150_1 *152:A 0
*END
*D_NET *153 0.0012054
*CONN
*I *154:Y O *D _34
*I *155:B I *L 0
*CAP
1 153_1 0.0012054
*RES
1 *154:Y 153_1 5.68
2 153_1 *155:B 0
*END
*D_NET *156 0.00117474
*CONN
*I *157:Y O *D _39
*I *158:A I *L 0
*CAP
1 156_1 0.00117474
*RES
1 *157:Y 156_1 5.17333
2 156_1 *158:A 0
*END
*D_NET *159 0.0012861
*CONN
*I *160:Y O *D _40
*I *161:B I *L 0
*CAP
1 159_1 0.0012861
*RES
1 *160:Y 159_1 5.6
2 159_1 *161:B 0
*END
*D_NET *162 0.00083046
*CONN
*I *163:Y O *D _41
*I *164:B I *L 0
*CAP
1 162_1 0.00083046
*RES
1 *163:Y 162_1 3.57333
2 162_1 *164:B 0
*END
*D_NET *165 0.00075332
*CONN
*I *166:Y O *D _46
*I *167:B I *L 0
*CAP
1 165_1 0.00075332
*RES
1 *166:Y 165_1 3.09333
2 165_1 *167:B 0
*END
*D_NET *168 0.00121264
*CONN
*I *169:Y O *D _49
*I *170:A I *L 0
*CAP
1 168_1 0.00121264
*RES
1 *169:Y 168_1 5.49333
2 168_1 *170:A 0
*END
*D_NET *171 0.00092802
*CONN
*I *172:Y O *D _51
*I *173:B I *L 0
*CAP
1 171_1 0.00092802
*RES
1 *172:Y 171_1 3.89333
2 171_1 *173:B 0
*END
*D_NET *174 0.00053382
*CONN
*I *175:Y O *D _56
*I *176:B I *L 0
*CAP
1 174_1 0.00053382
*RES
1 *175:Y 174_1 2.29333
2 174_1 *176:B 0
*END
*D_NET *177 0.00116292
*CONN
*I *178:Y O *D _59
*I *179:A I *L 0
*CAP
1 177_1 0.00116292
*RES
1 *178:Y 177_1 5.22667
2 177_1 *179:A 0
*END
*D_NET *180 0.0003942
*CONN
*I *181:Y O *D _61
*I *182:B I *L 0
*CAP
1 180_1 0.0003942
*RES
1 *181:Y 180_1 1.6
2 180_1 *182:B 0
*END
*D_NET *183 0.00014624
*CONN
*I *184:Y O *D _62
*I *185:A I *L 0
*CAP
1 183_1 0.00014624
*RES
1 *184:Y 183_1 0.426667
2 183_1 *185:A 0
*END
*D_NET *186 0.00040216
*CONN
*I *187:Y O *D _63
*I *188:B I *L 0
*CAP
1 186_1 0.00040216
*RES
1 *187:Y 186_1 1.17333
2 186_1 *188:B 0
*END
*D_NET *189 0.00014624
*CONN
*I *190:Y O *D _65
*I *191:A I *L 0
*CAP
1 189_1 0.00014624
*RES
1 *190:Y 189_1 0.426667
2 189_1 *191:A 0
*END
*D_NET *192 0.00086976
*CONN
*I *193:Y O *D _66
*I *194:B I *L 0
*CAP
1 192_1 0.00086976
*RES
1 *193:Y 192_1 3.30667
2 192_1 *194:B 0
*END
*D_NET *195 0.0006534
*CONN
*I *196:Y O *D _67
*I *197:A I *L 0
*CAP
1 195_1 0.0006534
*RES
1 *196:Y 195_1 2.88
2 195_1 *197:A 0
*END
*D_NET *198 0.00014624
*CONN
*I *199:Y O *D _68
*I *200:A I *L 0
*CAP
1 198_1 0.00014624
*RES
1 *199:Y 198_1 0.426667
2 198_1 *200:A 0
*END
*D_NET *201 0.00067184
*CONN
*I *202:Y O *D _69
*I *203:B I *L 0
*CAP
1 201_1 0.00067184
*RES
1 *202:Y 201_1 2.56
2 201_1 *203:B 0
*END
*D_NET *204 0.00014624
*CONN
*I *205:Y O *D _70
*I *206:A I *L 0
*CAP
1 204_1 0.00014624
*RES
1 *205:Y 204_1 0.426667
2 204_1 *206:A 0
*END
*D_NET *207 0.00056076
*CONN
*I *208:Y O *D _71
*I *209:B I *L 0
*CAP
1 207_1 0.00056076
*RES
1 *208:Y 207_1 2.45333
2 207_1 *209:B 0
*END
*D_NET *210 0.00014624
*CONN
*I *211:Y O *D _72
*I *212:A I *L 0
*CAP
1 210_1 0.00014624
*RES
1 *211:Y 210_1 0.426667
2 210_1 *212:A 0
*END
*D_NET *213 0.00123288
*CONN
*I *214:Y O *D _73
*I *215:B I *L 0
*CAP
1 213_1 0.00123288
*RES
1 *214:Y 213_1 5.33333
2 213_1 *215:B 0
*END
*D_NET *216 0.00014624
*CONN
*I *217:Y O *D _75
*I *218:A I *L 0
*CAP
1 216_1 0.00014624
*RES
1 *217:Y 216_1 0.426667
2 216_1 *218:A 0
*END
*D_NET *219 0.00040216
*CONN
*I *220:Y O *D _76
*I *221:B I *L 0
*CAP
1 219_1 0.00040216
*RES
1 *220:Y 219_1 1.17333
2 219_1 *221:B 0
*END
*D_NET *222 0.00068384
*CONN
*I *223:Y O *D _77
*I *224:A I *L 0
*CAP
1 222_1 0.00068384
*RES
1 *223:Y 222_1 2.77333
2 222_1 *224:A 0
*END
*D_NET *225 0.00014624
*CONN
*I *226:Y O *D _78
*I *227:A I *L 0
*CAP
1 225_1 0.00014624
*RES
1 *226:Y 225_1 0.426667
2 225_1 *227:A 0
*END
*D_NET *228 0.00063024
*CONN
*I *229:Y O *D _79
*I *230:B I *L 0
*CAP
1 228_1 0.00063024
*RES
1 *229:Y 228_1 2.77333
2 228_1 *230:B 0
*END
*D_NET *231 0.0003285
*CONN
*I *232:Y O *D _80
*I *233:A I *L 0
*CAP
1 231_1 0.0003285
*RES
1 *232:Y 231_1 1.33333
2 231_1 *233:A 0
*END
*D_NET *234 0.0003656
*CONN
*I *235:Y O *D _81
*I *236:B I *L 0
*CAP
1 234_1 0.0003656
*RES
1 *235:Y 234_1 1.06667
2 234_1 *236:B 0
*END
*D_NET *237 0.00014624
*CONN
*I *238:Y O *D _82
*I *239:A I *L 0
*CAP
1 237_1 0.00014624
*RES
1 *238:Y 237_1 0.426667
2 237_1 *239:A 0
*END
*D_NET *240 0.00021936
*CONN
*I *241:Y O *D _83
*I *242:B I *L 0
*CAP
1 240_1 0.00021936
*RES
1 *241:Y 240_1 0.64
2 240_1 *242:B 0
*END
