*SPEF "IEEE 1481.1999"
*DESIGN "single_generate"
*DATE "18:33:14 Thursday June 04, 2020"
*VENDOR "unknown"
*PROGRAM "qrouter"
*VERSION "unknown"
*DESIGN_FLOW "qflow"
*DIVIDER /
*DELIMITER :
*BUS_DELIMITER <>
*T_UNIT 1 PS
*C_UNIT 1 FF
*R_UNIT 1 OHM
*L_UNIT 1 HENRY

*NAME_MAP
*1 y
*2 _4_
*3 _5_
*4 x
*5 _4_
*6 _5_
*7 _1_
*8 _4_
*9 _7_
*10 _8_
*11 _0_
*12 _5_
*13 _7_
*14 _6_
*15 _3_
*16 _6_
*17 _10_
*18 p
*19 _10_
*20 _2_
*21 _7_
*22 _9_
*23 g
*24 _8_
*25 h
*26 _9_

*PORTS
*1 I
*4 I
*18 O
*23 O
*25 O

*D_NET *1 0.00041736
*CONN
*P *1 O
*I *2:A I *L 0
*I *3:A I *L 0
*CAP
1 1_1 0.000102
2 1_2 0.00027456
3 1_3 4.08e-05
*RES
1 *1 1_1 1.16667
2 1_1 1_2 2.61333
3 1_2 *2:A 0
4 1_1 1_3 0.466667
5 1_3 *3:A 0
*END
*D_NET *4 0.0002892
*CONN
*P *4 O
*I *5:B I *L 0
*I *6:B I *L 0
*CAP
1 4_1 6.048e-05
2 4_2 6.96e-05
3 4_3 0.00015912
*RES
1 *4 4_1 1.68
2 4_1 4_2 0.933333
3 4_2 *5:B 0
4 4_1 4_3 2.19333
5 4_3 *6:B 0
*END
*D_NET *7 0.00013824
*CONN
*I *8:Y O *D _4
*I *9:B I *L 0
*I *10:A I *L 0
*CAP
1 7_1 8.064e-05
2 7_2 5.76e-05
*RES
1 *8:Y 7_1 2.24
2 7_1 *9:B 0
3 7_1 7_2 0.373333
4 7_2 *10:A 0
*END
*D_NET *11 0.0002064
*CONN
*I *12:Y O *D _5
*I *13:A I *L 0
*I *14:A I *L 0
*CAP
1 11_1 3.36e-05
2 11_2 0.0001728
*RES
1 *12:Y 11_1 0.933333
2 11_1 *13:A 0
3 11_1 11_2 1.12
4 11_2 *14:A 0
*END
*D_NET *15 5.76e-05
*CONN
*I *16:Y O *D _6
*I *17:A I *L 0
*CAP
1 15_1 5.76e-05
*RES
1 *16:Y 15_1 0.373333
2 15_1 *17:A 0
*END
*D_NET *18 6.384e-05
*CONN
*I *19:Y O *D _10
*P *18 I
*CAP
1 18_1 6.384e-05
*RES
1 *19:Y 18_1 1.77333
2 18_1 *18 0
*END
*D_NET *20 0.00024192
*CONN
*I *21:Y O *D _7
*I *22:A I *L 0
*CAP
1 20_1 0.00024192
*RES
1 *21:Y 20_1 2.42667
2 20_1 *22:A 0
*END
*D_NET *23 0.00011856
*CONN
*I *24:Y O *D _8
*P *23 I
*CAP
1 23_1 0.00011856
*RES
1 *24:Y 23_1 1.4
2 23_1 *23 0
*END
*D_NET *25 2.688e-05
*CONN
*I *26:Y O *D _9
*P *25 I
*CAP
1 25_1 2.688e-05
*RES
1 *26:Y 25_1 0.746667
2 25_1 *25 0
*END
